76
Lattice="-1.2150000000000003 10.52220861 0.0 -9.72 4.2088834440000005 0.0 0.0 0.0 15.0" Properties=species:S:1:pos:R:3 pbc="T T T"
C       -9.72000000       5.61184459       5.80000000
C       -6.07500000       3.50740287       5.80000000
C       -7.29000000       4.20888344       5.80000000
C       -7.29000000       5.61184459       5.80000000
C       -8.50500000       6.31332517       5.80000000
C       -8.50500000       7.71628631       5.80000000
C       -9.72000000       8.41776689       5.80000000
C       -9.72000000       9.82072804       5.80000000
C       -2.43000000       1.40296115       5.80000000
C       -3.64500000       2.10444172       5.80000000
C       -3.64500000       3.50740287       5.80000000
C       -4.86000000       4.20888344       5.80000000
C       -4.86000000       5.61184459       5.80000000
C       -6.07500000       6.31332517       5.80000000
C       -6.07500000       7.71628631       5.80000000
C       -7.29000000       8.41776689       5.80000000
C       -7.29000000       9.82072804       5.80000000
C       -8.50500000      10.52220861       5.80000000
C       -8.50500000      11.92516976       5.80000000
C       -9.72000000      12.62665033       5.80000000
C       -9.72000000      14.02961148       5.80000000
C        0.00000000       0.00000000       5.80000000
C       -1.21500000       2.10444172       5.80000000
C       -1.21500000       3.50740287       5.80000000
C       -2.43000000       4.20888344       5.80000000
C       -2.43000000       5.61184459       5.80000000
C       -3.64500000       6.31332517       5.80000000
C       -3.64500000       7.71628631       5.80000000
C       -4.86000000       8.41776689       5.80000000
C       -4.86000000       9.82072804       5.80000000
C       -6.07500000      10.52220861       5.80000000
C       -6.07500000      11.92516976       5.80000000
C       -7.29000000      12.62665033       5.80000000
C       -1.21500000       6.31332517       5.80000000
C       -1.21500000       7.71628631       5.80000000
C       -2.43000000       8.41776689       5.80000000
C       -2.43000000       9.82072804       5.80000000
C       -3.64500000      10.52220861       5.80000000
C       -8.21723684       3.82122312       9.20000000
C       -9.56013157       4.22734345       9.20000000
C       -4.18855263       2.60286213       9.20000000
C       -5.53144736       3.00898246       9.20000000
C       -5.85118421       4.37502358       9.20000000
C       -7.19407894       4.78114391       9.20000000
C       -7.51381578       6.14718502       9.20000000
C       -8.85671052       6.55330536       9.20000000
C       -9.17644736       7.91934647       9.20000000
C       -0.15986842       1.38450113       9.20000000
C       -1.50276316       1.79062146       9.20000000
C       -1.82250000       3.15666258       9.20000000
C       -3.16539473       3.56278291       9.20000000
C       -3.48513157       4.92882403       9.20000000
C       -4.82802631       5.33494436       9.20000000
C       -5.14776315       6.70098548       9.20000000
C       -6.49065789       7.10710581       9.20000000
C       -6.81039473       8.47314693       9.20000000
C       -8.15328946       8.87926726       9.20000000
C       -8.47302630      10.24530838       9.20000000
C       -9.81592104      10.65142871       9.20000000
C      -10.13565788      12.01746983       9.20000000
C       -0.79934210       4.11658337       9.20000000
C       -1.11907894       5.48262449       9.20000000
C       -2.46197368       5.88874482       9.20000000
C       -2.78171052       7.25478594       9.20000000
C       -4.12460526       7.66090627       9.20000000
C       -4.44434210       9.02694738       9.20000000
C       -5.78723683       9.43306772       9.20000000
C       -6.10697367      10.79910883       9.20000000
C       -7.44986841      11.20522916       9.20000000
C       -7.76960525      12.57127028       9.20000000
C       -9.11249999      12.97739061       9.20000000
C       -1.75855262       8.21470672       9.20000000
C       -2.07828946       9.58074784       9.20000000
C       -3.42118420       9.98686817       9.20000000
C       -3.74092104      11.35290929       9.20000000
C       -5.08381578      11.75902962       9.20000000
