112
Lattice="-2.43 12.626650331999999 0.0 -12.150000000000002 4.208883444 0.0 0.0 0.0 15.0" Properties=species:S:1:pos:R:3 pbc="T T T"
C      -12.15000000       5.61184459       5.80000000
C       -8.50500000       3.50740287       5.80000000
C       -9.72000000       4.20888344       5.80000000
C       -9.72000000       5.61184459       5.80000000
C      -10.93500000       6.31332517       5.80000000
C      -10.93500000       7.71628631       5.80000000
C      -12.15000000       8.41776689       5.80000000
C      -12.15000000       9.82072804       5.80000000
C      -13.36500000      11.92516976       5.80000000
C       -6.07500000       2.10444172       5.80000000
C       -6.07500000       3.50740287       5.80000000
C       -7.29000000       4.20888344       5.80000000
C       -7.29000000       5.61184459       5.80000000
C       -8.50500000       6.31332517       5.80000000
C       -8.50500000       7.71628631       5.80000000
C       -9.72000000       8.41776689       5.80000000
C       -9.72000000       9.82072804       5.80000000
C      -10.93500000      10.52220861       5.80000000
C      -10.93500000      11.92516976       5.80000000
C      -12.15000000      12.62665033       5.80000000
C      -12.15000000      14.02961148       5.80000000
C      -13.36500000      14.73109205       5.80000000
C      -13.36500000      16.13405320       5.80000000
C       -2.43000000       1.40296115       5.80000000
C       -3.64500000       2.10444172       5.80000000
C       -3.64500000       3.50740287       5.80000000
C       -4.86000000       4.20888344       5.80000000
C       -4.86000000       5.61184459       5.80000000
C       -6.07500000       6.31332517       5.80000000
C       -6.07500000       7.71628631       5.80000000
C       -7.29000000       8.41776689       5.80000000
C       -7.29000000       9.82072804       5.80000000
C       -8.50500000      10.52220861       5.80000000
C       -8.50500000      11.92516976       5.80000000
C       -9.72000000      12.62665033       5.80000000
C       -9.72000000      14.02961148       5.80000000
C      -10.93500000      14.73109205       5.80000000
C        0.00000000       0.00000000       5.80000000
C       -1.21500000       2.10444172       5.80000000
C       -1.21500000       3.50740287       5.80000000
C       -2.43000000       4.20888344       5.80000000
C       -2.43000000       5.61184459       5.80000000
C       -3.64500000       6.31332517       5.80000000
C       -3.64500000       7.71628631       5.80000000
C       -4.86000000       8.41776689       5.80000000
C       -4.86000000       9.82072804       5.80000000
C       -6.07500000      10.52220861       5.80000000
C       -6.07500000      11.92516976       5.80000000
C       -7.29000000      12.62665033       5.80000000
C       -7.29000000      14.02961148       5.80000000
C       -1.21500000       6.31332517       5.80000000
C       -2.43000000       8.41776689       5.80000000
C       -2.43000000       9.82072804       5.80000000
C       -3.64500000      10.52220861       5.80000000
C       -3.64500000      11.92516976       5.80000000
C       -4.86000000      12.62665033       5.80000000
C      -10.50107142       4.05856616       9.20000000
C      -11.88964284       4.25898918       9.20000000
C       -4.42607142       1.95412445       9.20000000
C       -5.81464285       2.15454747       9.20000000
C       -6.33535713       3.45729711       9.20000000
C       -7.72392856       3.65772013       9.20000000
C       -8.24464285       4.96046976       9.20000000
C       -9.63321427       5.16089278       9.20000000
C      -10.15392856       6.46364242       9.20000000
C      -11.54249998       6.66406544       9.20000000
C      -12.06321427       7.96681508       9.20000000
C       -0.26035714       1.35285539       9.20000000
C       -1.64892857       1.55327841       9.20000000
C       -2.16964285       2.85602805       9.20000000
C       -3.55821428       3.05645107       9.20000000
C       -4.07892856       4.35920071       9.20000000
C       -5.46749999       4.55962373       9.20000000
C       -5.98821427       5.86237336       9.20000000
C       -7.37678570       6.06279638       9.20000000
C       -7.89749999       7.36554602       9.20000000
C       -9.28607141       7.56596904       9.20000000
C       -9.80678570       8.86871868       9.20000000
C      -11.19535712       9.06914169       9.20000000
C      -11.71607141      10.37189133       9.20000000
C      -13.10464283      10.57231435       9.20000000
C       -1.30178571       3.95835467       9.20000000
C       -1.82249999       5.26110430       9.20000000
C       -3.21107142       5.46152732       9.20000000
C       -3.73178570       6.76427696       9.20000000
C       -5.12035713       6.96469998       9.20000000
C       -5.64107141       8.26744962       9.20000000
C       -7.02964284       8.46787264       9.20000000
C       -7.55035712       9.77062227       9.20000000
C       -8.93892855       9.97104529       9.20000000
C       -9.45964284      11.27379493       9.20000000
C      -10.84821426      11.47421795       9.20000000
C      -11.36892855      12.77696759       9.20000000
C      -12.75749997      12.97739061       9.20000000
C      -13.27821426      14.28014024       9.20000000
C       -1.47535713       7.66618056       9.20000000
C       -2.86392856       7.86660358       9.20000000
C       -3.38464284       9.16935322       9.20000000
C       -4.77321427       9.36977624       9.20000000
C       -5.29392855      10.67252587       9.20000000
C       -6.68249998      10.87294889       9.20000000
C       -7.20321426      12.17569853       9.20000000
C       -8.59178569      12.37612155       9.20000000
C       -9.11249997      13.67887119       9.20000000
C      -10.50107140      13.87929421       9.20000000
C      -11.02178569      15.18204384       9.20000000
C      -12.41035711      15.38246686       9.20000000
C       -2.51678570      10.27167984       9.20000000
C       -3.03749998      11.57442947       9.20000000
C       -4.42607141      11.77485249       9.20000000
C       -4.94678569      13.07760213       9.20000000
C       -6.33535712      13.27802515       9.20000000
