28
Lattice="-1.215 6.313325165999999 0.0 -6.075000000000001 2.104441722 0.0 0.0 0.0 15.0" Properties=species:S:1:pos:R:3 pbc="T T T"
C       -6.07500000       3.50740287       5.80000000
C       -2.43000000       1.40296115       5.80000000
C       -3.64500000       2.10444172       5.80000000
C       -3.64500000       3.50740287       5.80000000
C       -4.86000000       4.20888344       5.80000000
C       -4.86000000       5.61184459       5.80000000
C       -6.07500000       6.31332517       5.80000000
C       -6.07500000       7.71628631       5.80000000
C        0.00000000       0.00000000       5.80000000
C       -1.21500000       2.10444172       5.80000000
C       -1.21500000       3.50740287       5.80000000
C       -2.43000000       4.20888344       5.80000000
C       -2.43000000       5.61184459       5.80000000
C       -3.64500000       6.31332517       5.80000000
C       -4.42607142       1.95412445       9.20000000
C       -5.81464285       2.15454747       9.20000000
C       -0.26035714       1.35285539       9.20000000
C       -1.64892857       1.55327841       9.20000000
C       -2.16964285       2.85602805       9.20000000
C       -3.55821428       3.05645107       9.20000000
C       -4.07892856       4.35920071       9.20000000
C       -5.46749999       4.55962373       9.20000000
C       -5.98821427       5.86237336       9.20000000
C       -1.30178571       3.95835467       9.20000000
C       -1.82249999       5.26110430       9.20000000
C       -3.21107142       5.46152732       9.20000000
C       -3.73178570       6.76427696       9.20000000
C       -5.12035713       6.96469998       9.20000000
